Version 4
SHEET 1 1412 680
WIRE 320 80 160 80
WIRE 160 112 160 80
WIRE 320 128 320 80
WIRE 96 160 16 160
WIRE 16 176 16 160
WIRE 16 288 16 256
WIRE 160 288 160 208
WIRE 320 288 320 208
FLAG 16 288 0
FLAG 160 288 0
FLAG 320 288 0
SYMBOL npn 96 112 R0
SYMATTR InstName Q1
SYMATTR Value QVA
SYMBOL voltage 16 160 R0
WINDOW 123 0 0 Left 0
WINDOW 39 0 0 Left 0
SYMATTR InstName VBE
SYMATTR Value 0
SYMBOL voltage 320 112 R0
WINDOW 123 0 0 Left 0
WINDOW 39 0 0 Left 0
SYMATTR InstName VCE
SYMATTR Value 1
TEXT -16 328 Left 2 !.dc VCE 0 3 0.01 VBE 0.4 1 0.05
TEXT 456 144 Left 2 !.model QVA NPN(IS=1E-14 VAF=5\n+   BF=200 IKF=0.3 XTB=1.5 BR=3\n+   CJC=8E-12 CJE=25E-12 TR=100E-9 TF=400E-12\n+   ITF=1 VTF=2 XTF=3 RB=10 RC=.3 RE=.2 Vceo=30 Icrating=800m  mfg=NXP)
